OPT_V10/Two_days_first_run/powerflow_results_t26.txt
Pandapower Network Debug Info
==================================================

BUS:
       vm_pu  va_degree      p_mw    q_mvar
0   0.992161   0.122034  0.001179  0.001073
1   0.987129   0.218125  0.001563  0.002381
2   0.982572   0.304356  0.002295  0.003403
3   0.988117   0.182829  0.002966  0.003871
4   0.989499   0.173058  0.003265  0.004454
5   0.991961   0.076286  0.003947  0.004817
6   0.989968   0.073574  0.001435  0.001066
7   0.997538   0.017338  0.001834  0.001858
8   0.997788   0.038324  0.001973  0.003440
9   0.999822   0.001715  0.009378  0.011693
10  0.999829   0.001629  0.010225  0.008810
11  0.999846   0.001482  0.012180  0.012914
12  0.999756   0.000656  0.010975  0.006516
13  0.999725   0.000693  0.013999  0.011272
14  0.999736   0.000683  0.015311  0.011179
15  0.999926   0.000798  0.000000  0.000000
16  0.999926   0.000804  0.000000  0.000000
17  0.999762   0.000696  0.000000  0.000000
18  0.999762   0.000705  0.000000  0.000000
19  1.000000   0.000000 -0.039961 -0.049265
20  1.000000   0.000007  0.000000  0.000000
21  1.000000   0.000000 -0.052885 -0.049699
22  1.000000   0.000007  0.000000  0.000000
--------------------------------------------------

LINE:
    p_from_mw  q_from_mvar   p_to_mw  q_to_mvar         pl_mw       ql_mvar  i_from_ka   i_to_ka      i_ka  vm_from_pu  va_from_degree  vm_to_pu  va_to_degree  loading_percent
0    0.039951     0.045265 -0.039948  -0.045262  3.565314e-06  2.779934e-06   0.002324  0.002324  0.002324    1.000000        0.000007  0.999926      0.000798         1.010346
1    0.052875     0.045699 -0.052862  -0.045688  1.313774e-05  1.024371e-05   0.002690  0.002690  0.002690    1.000000        0.000007  0.999762      0.000696         1.169540
2    0.031787     0.033419 -0.031784  -0.033417  2.943035e-06  2.294733e-06   0.001775  0.001775  0.001775    0.999926        0.000798  0.999846      0.001482         0.771901
3    0.010975     0.006516 -0.010975  -0.006516  5.636579e-08  4.394933e-08   0.000491  0.000491  0.000491    0.999762        0.000696  0.999756      0.000656         0.213649
4    0.029312     0.022451 -0.029311  -0.022451  7.457623e-07  5.814831e-07   0.001421  0.001421  0.001421    0.999762        0.000696  0.999736      0.000683         0.618029
5    0.008151     0.010843 -0.008065  -0.010776  8.607782e-05  6.711630e-05   0.019581  0.019581  0.019581    0.999926        0.000804  0.992161      0.122034         8.513418
6    0.005435     0.005924 -0.005385  -0.005885  5.016528e-05  3.911469e-05   0.011606  0.011606  0.011606    0.999762        0.000705  0.991961      0.076286         5.046304
7    0.001838     0.001862 -0.001834  -0.001858  4.627419e-06  3.608075e-06   0.003777  0.003777  0.003777    0.999762        0.000705  0.997538      0.017338         1.642381
8    0.005292     0.007936 -0.005277  -0.007924  1.565079e-05  1.220318e-05   0.013771  0.013771  0.013771    0.999762        0.000705  0.997788      0.038324         5.987346
9    0.009378     0.011693 -0.009378  -0.011693  7.772562e-08  6.060394e-08   0.000577  0.000577  0.000577    0.999829        0.001629  0.999822      0.001715         0.250886
10   0.019604     0.020503 -0.019604  -0.020503  3.936676e-07  3.069491e-07   0.001092  0.001092  0.001092    0.999846        0.001482  0.999829      0.001629         0.474789
11   0.014000     0.011272 -0.013999  -0.011272  1.580749e-07  1.232536e-07   0.000692  0.000692  0.000692    0.999736        0.000683  0.999725      0.000693         0.300862
12  -0.003874    -0.005797  0.003903   0.005820  2.951293e-05  2.301172e-05   0.010194  0.010194  0.010194    0.987129        0.218125  0.992161      0.122034         4.432354
13  -0.002966    -0.003871  0.002982   0.003883  1.626136e-05  1.267925e-05   0.007123  0.007123  0.007123    0.988117        0.182829  0.992161      0.122034         3.097022
14  -0.002295    -0.003403  0.002311   0.003416  1.578752e-05  1.230979e-05   0.006030  0.006030  0.006030    0.982572        0.304356  0.987129      0.218125         2.621692
15   0.003303     0.004484 -0.003265  -0.004454  3.790538e-05  2.955545e-05   0.008056  0.008056  0.008056    0.997788        0.038324  0.989499      0.173058         3.502681
16  -0.001435    -0.001066  0.001438   0.001068  2.839325e-06  2.213869e-06   0.002607  0.002607  0.002607    0.989968        0.073574  0.991961      0.076286         1.133298
--------------------------------------------------

TRAFO:
    p_hv_mw  q_hv_mvar   p_lv_mw  q_lv_mvar    pl_mw   ql_mvar   i_hv_ka   i_lv_ka  vm_hv_pu  va_hv_degree  vm_lv_pu  va_lv_degree  loading_percent
0  0.008161   0.011843 -0.008151  -0.010843  0.00001  0.001000  0.000554  0.019581  0.999926      0.000798  0.999926      0.000804         0.143835
1  0.012575   0.016721 -0.012565  -0.015721  0.00001  0.000999  0.000805  0.029056  0.999762      0.000696  0.999762      0.000705         0.209270
2  0.039961   0.049265 -0.039951  -0.045265  0.00001  0.004000  0.000523  0.002324  1.000000      0.000000  1.000000      0.000007         0.158586
3  0.052885   0.049699 -0.052875  -0.045699  0.00001  0.004000  0.000599  0.002690  1.000000      0.000000  1.000000      0.000007         0.181432
--------------------------------------------------
